Circuit: * C:\Users\RossHarvey\Documents\Electronics Documents\Atlas\Simulation\drive_isense.asc

Direct Newton iteration for .op point succeeded.

Date: Fri Jul 03 17:18:22 2015
Total elapsed time: 0.064 seconds.

tnom = 27
temp = 27
method = modified trap
totiter = 277
traniter = 240
tranpoints = 121
accept = 121
rejected = 0
matrix size = 11
fillins = 9
solver = Normal
Matrix Compiler1: 672 bytes object code size  0.3/0.2/[0.1]
Matrix Compiler2: off  [0.2]/0.2/0.4


